<?xml version="1.0" encoding="UTF-8"?>

<!-- generated on 2025-03-28 22:46:02 by Eclipse SUMO netconvert Version 1.22.0
<netconvertConfiguration xmlns:xsi="http://www.w3.org/2001/XMLSchema-instance" xsi:noNamespaceSchemaLocation="http://sumo.dlr.de/xsd/netconvertConfiguration.xsd">

    <input>
        <node-files value="circle.nod.xml"/>
        <edge-files value="circle.edg.xml"/>
    </input>

    <output>
        <output-file value="circle.net.xml"/>
    </output>

    <junctions>
        <junctions.corner-detail value="20"/>
    </junctions>

</netconvertConfiguration>
-->

<net version="1.20" junctionCornerDetail="20" limitTurnSpeed="5.50" xmlns:xsi="http://www.w3.org/2001/XMLSchema-instance" xsi:noNamespaceSchemaLocation="http://sumo.dlr.de/xsd/net_file.xsd">

    <location netOffset="500.00,500.00" convBoundary="0.00,0.00,1000.00,1000.00" origBoundary="-500.00,-500.00,500.00,500.00" projParameter="!"/>

    <edge id=":0_0" function="internal">
        <lane id=":0_0_0" index="0" speed="25.00" length="0.28" shape="1001.59,499.86 1001.60,499.94 1001.60,500.00 1001.60,500.06 1001.59,500.14"/>
    </edge>
    <edge id=":1_0" function="internal">
        <lane id=":1_0_0" index="0" speed="25.00" length="0.28" shape="993.99,586.96 993.99,587.04 993.98,587.10 993.97,587.15 993.95,587.23"/>
    </edge>
    <edge id=":10_0" function="internal">
        <lane id=":10_0_0" index="0" speed="25.00" length="0.28" shape="413.04,993.99 412.96,993.99 412.90,993.98 412.85,993.97 412.77,993.95"/>
    </edge>
    <edge id=":11_0" function="internal">
        <lane id=":11_0_0" index="0" speed="25.00" length="0.28" shape="328.58,971.40 328.50,971.37 328.44,971.36 328.39,971.33 328.31,971.30"/>
    </edge>
    <edge id=":12_0" function="internal">
        <lane id=":12_0_0" index="0" speed="25.00" length="0.28" shape="249.32,934.46 249.25,934.42 249.20,934.40 249.15,934.37 249.08,934.32"/>
    </edge>
    <edge id=":13_0" function="internal">
        <lane id=":13_0_0" index="0" speed="25.00" length="0.28" shape="177.69,884.33 177.62,884.28 177.58,884.25 177.54,884.21 177.48,884.15"/>
    </edge>
    <edge id=":14_0" function="internal">
        <lane id=":14_0_0" index="0" speed="25.00" length="0.28" shape="115.85,822.52 115.79,822.46 115.75,822.42 115.72,822.38 115.67,822.31"/>
    </edge>
    <edge id=":15_0" function="internal">
        <lane id=":15_0_0" index="0" speed="25.00" length="0.28" shape="65.68,750.92 65.63,750.85 65.60,750.80 65.58,750.75 65.54,750.68"/>
    </edge>
    <edge id=":16_0" function="internal">
        <lane id=":16_0_0" index="0" speed="25.00" length="0.28" shape="28.70,671.69 28.67,671.61 28.64,671.56 28.63,671.50 28.60,671.42"/>
    </edge>
    <edge id=":17_0" function="internal">
        <lane id=":17_0_0" index="0" speed="25.00" length="0.28" shape="6.05,587.23 6.03,587.15 6.02,587.10 6.01,587.04 6.01,586.96"/>
    </edge>
    <edge id=":18_0" function="internal">
        <lane id=":18_0_0" index="0" speed="25.00" length="0.28" shape="-1.59,500.14 -1.60,500.06 -1.60,500.00 -1.60,499.94 -1.59,499.86"/>
    </edge>
    <edge id=":19_0" function="internal">
        <lane id=":19_0_0" index="0" speed="25.00" length="0.28" shape="6.01,413.04 6.01,412.96 6.02,412.90 6.03,412.85 6.05,412.77"/>
    </edge>
    <edge id=":2_0" function="internal">
        <lane id=":2_0_0" index="0" speed="25.00" length="0.28" shape="971.40,671.42 971.37,671.50 971.36,671.56 971.33,671.61 971.30,671.69"/>
    </edge>
    <edge id=":20_0" function="internal">
        <lane id=":20_0_0" index="0" speed="25.00" length="0.28" shape="28.60,328.58 28.63,328.50 28.64,328.44 28.67,328.39 28.70,328.31"/>
    </edge>
    <edge id=":21_0" function="internal">
        <lane id=":21_0_0" index="0" speed="25.00" length="0.28" shape="65.54,249.32 65.58,249.25 65.60,249.20 65.63,249.15 65.68,249.08"/>
    </edge>
    <edge id=":22_0" function="internal">
        <lane id=":22_0_0" index="0" speed="25.00" length="0.28" shape="115.67,177.69 115.72,177.62 115.75,177.58 115.79,177.54 115.85,177.48"/>
    </edge>
    <edge id=":23_0" function="internal">
        <lane id=":23_0_0" index="0" speed="25.00" length="0.28" shape="177.48,115.85 177.54,115.79 177.58,115.75 177.62,115.72 177.69,115.67"/>
    </edge>
    <edge id=":24_0" function="internal">
        <lane id=":24_0_0" index="0" speed="25.00" length="0.28" shape="249.08,65.68 249.15,65.63 249.20,65.60 249.25,65.58 249.32,65.54"/>
    </edge>
    <edge id=":25_0" function="internal">
        <lane id=":25_0_0" index="0" speed="25.00" length="0.28" shape="328.31,28.70 328.39,28.67 328.44,28.64 328.50,28.63 328.58,28.60"/>
    </edge>
    <edge id=":26_0" function="internal">
        <lane id=":26_0_0" index="0" speed="25.00" length="0.28" shape="412.77,6.05 412.85,6.03 412.90,6.02 412.96,6.01 413.04,6.01"/>
    </edge>
    <edge id=":27_0" function="internal">
        <lane id=":27_0_0" index="0" speed="25.00" length="0.28" shape="499.86,-1.59 499.94,-1.60 500.00,-1.60 500.06,-1.60 500.14,-1.59"/>
    </edge>
    <edge id=":28_0" function="internal">
        <lane id=":28_0_0" index="0" speed="25.00" length="0.28" shape="586.96,6.01 587.04,6.01 587.10,6.02 587.15,6.03 587.23,6.05"/>
    </edge>
    <edge id=":29_0" function="internal">
        <lane id=":29_0_0" index="0" speed="25.00" length="0.28" shape="671.42,28.60 671.50,28.63 671.56,28.64 671.61,28.67 671.69,28.70"/>
    </edge>
    <edge id=":3_0" function="internal">
        <lane id=":3_0_0" index="0" speed="25.00" length="0.28" shape="934.46,750.68 934.42,750.75 934.40,750.80 934.37,750.85 934.32,750.92"/>
    </edge>
    <edge id=":30_0" function="internal">
        <lane id=":30_0_0" index="0" speed="25.00" length="0.28" shape="750.68,65.54 750.75,65.58 750.80,65.60 750.85,65.63 750.92,65.68"/>
    </edge>
    <edge id=":31_0" function="internal">
        <lane id=":31_0_0" index="0" speed="25.00" length="0.28" shape="822.31,115.67 822.38,115.72 822.42,115.75 822.46,115.79 822.52,115.85"/>
    </edge>
    <edge id=":32_0" function="internal">
        <lane id=":32_0_0" index="0" speed="25.00" length="0.28" shape="884.15,177.48 884.21,177.54 884.25,177.58 884.28,177.62 884.33,177.69"/>
    </edge>
    <edge id=":33_0" function="internal">
        <lane id=":33_0_0" index="0" speed="25.00" length="0.28" shape="934.32,249.08 934.37,249.15 934.40,249.20 934.42,249.25 934.46,249.32"/>
    </edge>
    <edge id=":34_0" function="internal">
        <lane id=":34_0_0" index="0" speed="25.00" length="0.28" shape="971.30,328.31 971.33,328.39 971.36,328.44 971.37,328.50 971.40,328.58"/>
    </edge>
    <edge id=":35_0" function="internal">
        <lane id=":35_0_0" index="0" speed="25.00" length="0.28" shape="993.95,412.77 993.97,412.85 993.98,412.90 993.99,412.96 993.99,413.04"/>
    </edge>
    <edge id=":4_0" function="internal">
        <lane id=":4_0_0" index="0" speed="25.00" length="0.28" shape="884.33,822.31 884.28,822.38 884.25,822.42 884.21,822.46 884.15,822.52"/>
    </edge>
    <edge id=":5_0" function="internal">
        <lane id=":5_0_0" index="0" speed="25.00" length="0.28" shape="822.52,884.15 822.46,884.21 822.42,884.25 822.38,884.28 822.31,884.33"/>
    </edge>
    <edge id=":6_0" function="internal">
        <lane id=":6_0_0" index="0" speed="25.00" length="0.28" shape="750.92,934.32 750.85,934.37 750.80,934.40 750.75,934.42 750.68,934.46"/>
    </edge>
    <edge id=":7_0" function="internal">
        <lane id=":7_0_0" index="0" speed="25.00" length="0.28" shape="671.69,971.30 671.61,971.33 671.56,971.36 671.50,971.37 671.42,971.40"/>
    </edge>
    <edge id=":8_0" function="internal">
        <lane id=":8_0_0" index="0" speed="25.00" length="0.28" shape="587.23,993.95 587.15,993.97 587.10,993.98 587.04,993.99 586.96,993.99"/>
    </edge>
    <edge id=":9_0" function="internal">
        <lane id=":9_0_0" index="0" speed="25.00" length="0.28" shape="500.14,1001.59 500.06,1001.60 500.00,1001.60 499.94,1001.60 499.86,1001.59"/>
    </edge>

    <edge id="0_1" from="0" to="1" priority="75">
        <lane id="0_1_0" index="0" speed="25.00" length="87.15" shape="1001.59,500.14 993.99,586.96"/>
    </edge>
    <edge id="10_11" from="10" to="11" priority="75">
        <lane id="10_11_0" index="0" speed="25.00" length="87.16" shape="412.77,993.95 328.58,971.40"/>
    </edge>
    <edge id="11_12" from="11" to="12" priority="75">
        <lane id="11_12_0" index="0" speed="25.00" length="87.16" shape="328.31,971.30 249.32,934.46"/>
    </edge>
    <edge id="12_13" from="12" to="13" priority="75">
        <lane id="12_13_0" index="0" speed="25.00" length="87.15" shape="249.08,934.32 177.69,884.33"/>
    </edge>
    <edge id="13_14" from="13" to="14" priority="75">
        <lane id="13_14_0" index="0" speed="25.00" length="87.16" shape="177.48,884.15 115.85,822.52"/>
    </edge>
    <edge id="14_15" from="14" to="15" priority="75">
        <lane id="14_15_0" index="0" speed="25.00" length="87.15" shape="115.67,822.31 65.68,750.92"/>
    </edge>
    <edge id="15_16" from="15" to="16" priority="75">
        <lane id="15_16_0" index="0" speed="25.00" length="87.16" shape="65.54,750.68 28.70,671.69"/>
    </edge>
    <edge id="16_17" from="16" to="17" priority="75">
        <lane id="16_17_0" index="0" speed="25.00" length="87.16" shape="28.60,671.42 6.05,587.23"/>
    </edge>
    <edge id="17_18" from="17" to="18" priority="75">
        <lane id="17_18_0" index="0" speed="25.00" length="87.15" shape="6.01,586.96 -1.59,500.14"/>
    </edge>
    <edge id="18_19" from="18" to="19" priority="75">
        <lane id="18_19_0" index="0" speed="25.00" length="87.15" shape="-1.59,499.86 6.01,413.04"/>
    </edge>
    <edge id="19_20" from="19" to="20" priority="75">
        <lane id="19_20_0" index="0" speed="25.00" length="87.16" shape="6.05,412.77 28.60,328.58"/>
    </edge>
    <edge id="1_2" from="1" to="2" priority="75">
        <lane id="1_2_0" index="0" speed="25.00" length="87.16" shape="993.95,587.23 971.40,671.42"/>
    </edge>
    <edge id="20_21" from="20" to="21" priority="75">
        <lane id="20_21_0" index="0" speed="25.00" length="87.16" shape="28.70,328.31 65.54,249.32"/>
    </edge>
    <edge id="21_22" from="21" to="22" priority="75">
        <lane id="21_22_0" index="0" speed="25.00" length="87.15" shape="65.68,249.08 115.67,177.69"/>
    </edge>
    <edge id="22_23" from="22" to="23" priority="75">
        <lane id="22_23_0" index="0" speed="25.00" length="87.16" shape="115.85,177.48 177.48,115.85"/>
    </edge>
    <edge id="23_24" from="23" to="24" priority="75">
        <lane id="23_24_0" index="0" speed="25.00" length="87.15" shape="177.69,115.67 249.08,65.68"/>
    </edge>
    <edge id="24_25" from="24" to="25" priority="75">
        <lane id="24_25_0" index="0" speed="25.00" length="87.16" shape="249.32,65.54 328.31,28.70"/>
    </edge>
    <edge id="25_26" from="25" to="26" priority="75">
        <lane id="25_26_0" index="0" speed="25.00" length="87.16" shape="328.58,28.60 412.77,6.05"/>
    </edge>
    <edge id="26_27" from="26" to="27" priority="75">
        <lane id="26_27_0" index="0" speed="25.00" length="87.15" shape="413.04,6.01 499.86,-1.59"/>
    </edge>
    <edge id="27_28" from="27" to="28" priority="75">
        <lane id="27_28_0" index="0" speed="25.00" length="87.15" shape="500.14,-1.59 586.96,6.01"/>
    </edge>
    <edge id="28_29" from="28" to="29" priority="75">
        <lane id="28_29_0" index="0" speed="25.00" length="87.16" shape="587.23,6.05 671.42,28.60"/>
    </edge>
    <edge id="29_30" from="29" to="30" priority="75">
        <lane id="29_30_0" index="0" speed="25.00" length="87.16" shape="671.69,28.70 750.68,65.54"/>
    </edge>
    <edge id="2_3" from="2" to="3" priority="75">
        <lane id="2_3_0" index="0" speed="25.00" length="87.16" shape="971.30,671.69 934.46,750.68"/>
    </edge>
    <edge id="30_31" from="30" to="31" priority="75">
        <lane id="30_31_0" index="0" speed="25.00" length="87.15" shape="750.92,65.68 822.31,115.67"/>
    </edge>
    <edge id="31_32" from="31" to="32" priority="75">
        <lane id="31_32_0" index="0" speed="25.00" length="87.16" shape="822.52,115.85 884.15,177.48"/>
    </edge>
    <edge id="32_33" from="32" to="33" priority="75">
        <lane id="32_33_0" index="0" speed="25.00" length="87.15" shape="884.33,177.69 934.32,249.08"/>
    </edge>
    <edge id="33_34" from="33" to="34" priority="75">
        <lane id="33_34_0" index="0" speed="25.00" length="87.16" shape="934.46,249.32 971.30,328.31"/>
    </edge>
    <edge id="34_35" from="34" to="35" priority="75">
        <lane id="34_35_0" index="0" speed="25.00" length="87.16" shape="971.40,328.58 993.95,412.77"/>
    </edge>
    <edge id="35_0" from="35" to="0" priority="75">
        <lane id="35_0_0" index="0" speed="25.00" length="87.15" shape="993.99,413.04 1001.59,499.86"/>
    </edge>
    <edge id="3_4" from="3" to="4" priority="75">
        <lane id="3_4_0" index="0" speed="25.00" length="87.15" shape="934.32,750.92 884.33,822.31"/>
    </edge>
    <edge id="4_5" from="4" to="5" priority="75">
        <lane id="4_5_0" index="0" speed="25.00" length="87.16" shape="884.15,822.52 822.52,884.15"/>
    </edge>
    <edge id="5_6" from="5" to="6" priority="75">
        <lane id="5_6_0" index="0" speed="25.00" length="87.15" shape="822.31,884.33 750.92,934.32"/>
    </edge>
    <edge id="6_7" from="6" to="7" priority="75">
        <lane id="6_7_0" index="0" speed="25.00" length="87.16" shape="750.68,934.46 671.69,971.30"/>
    </edge>
    <edge id="7_8" from="7" to="8" priority="75">
        <lane id="7_8_0" index="0" speed="25.00" length="87.16" shape="671.42,971.40 587.23,993.95"/>
    </edge>
    <edge id="8_9" from="8" to="9" priority="75">
        <lane id="8_9_0" index="0" speed="25.00" length="87.15" shape="586.96,993.99 500.14,1001.59"/>
    </edge>
    <edge id="9_10" from="9" to="10" priority="75">
        <lane id="9_10_0" index="0" speed="25.00" length="87.15" shape="499.86,1001.59 413.04,993.99"/>
    </edge>

    <junction id="0" type="priority" x="1000.00" y="500.00" incLanes="35_0_0" intLanes=":0_0_0" shape="1003.19,499.72 1000.00,500.00 1003.19,500.28 1003.21,500.03 1003.20,499.85">
        <request index="0" response="0" foes="0" cont="0"/>
    </junction>
    <junction id="1" type="priority" x="992.40" y="586.82" incLanes="0_1_0" intLanes=":1_0_0" shape="995.59,587.10 992.40,586.82 995.49,587.65 995.55,587.41 995.58,587.23">
        <request index="0" response="0" foes="0" cont="0"/>
    </junction>
    <junction id="10" type="priority" x="413.18" y="992.40" incLanes="9_10_0" intLanes=":10_0_0" shape="412.90,995.59 413.18,992.40 412.35,995.49 412.59,995.55 412.77,995.58">
        <request index="0" response="0" foes="0" cont="0"/>
    </junction>
    <junction id="11" type="priority" x="328.99" y="969.85" incLanes="10_11_0" intLanes=":11_0_0" shape="328.16,972.94 328.99,969.85 327.64,972.75 327.87,972.85 328.03,972.91">
        <request index="0" response="0" foes="0" cont="0"/>
    </junction>
    <junction id="12" type="priority" x="250.00" y="933.01" incLanes="11_12_0" intLanes=":12_0_0" shape="248.65,935.91 250.00,933.01 248.16,935.63 248.37,935.77 248.53,935.85">
        <request index="0" response="0" foes="0" cont="0"/>
    </junction>
    <junction id="13" type="priority" x="178.61" y="883.02" incLanes="12_13_0" intLanes=":13_0_0" shape="176.77,885.64 178.61,883.02 176.35,885.28 176.53,885.46 176.67,885.56">
        <request index="0" response="0" foes="0" cont="0"/>
    </junction>
    <junction id="14" type="priority" x="116.98" y="821.39" incLanes="13_14_0" intLanes=":14_0_0" shape="114.72,823.65 116.98,821.39 114.36,823.23 114.50,823.43 114.62,823.56">
        <request index="0" response="0" foes="0" cont="0"/>
    </junction>
    <junction id="15" type="priority" x="66.99" y="750.00" incLanes="14_15_0" intLanes=":15_0_0" shape="64.37,751.84 66.99,750.00 64.09,751.35 64.20,751.58 64.29,751.73">
        <request index="0" response="0" foes="0" cont="0"/>
    </junction>
    <junction id="16" type="priority" x="30.15" y="671.01" incLanes="15_16_0" intLanes=":16_0_0" shape="27.25,672.36 30.15,671.01 27.06,671.84 27.13,672.08 27.19,672.24">
        <request index="0" response="0" foes="0" cont="0"/>
    </junction>
    <junction id="17" type="priority" x="7.60" y="586.82" incLanes="16_17_0" intLanes=":17_0_0" shape="4.51,587.65 7.60,586.82 4.41,587.10 4.44,587.35 4.47,587.52">
        <request index="0" response="0" foes="0" cont="0"/>
    </junction>
    <junction id="18" type="priority" x="0.00" y="500.00" incLanes="17_18_0" intLanes=":18_0_0" shape="-3.19,500.28 0.00,500.00 -3.19,499.72 -3.21,499.97 -3.20,500.15">
        <request index="0" response="0" foes="0" cont="0"/>
    </junction>
    <junction id="19" type="priority" x="7.60" y="413.18" incLanes="18_19_0" intLanes=":19_0_0" shape="7.60,413.18 4.51,412.35 4.45,412.59 4.42,412.77 4.42,412.86">
        <request index="0" response="0" foes="0" cont="0"/>
    </junction>
    <junction id="2" type="priority" x="969.85" y="671.01" incLanes="1_2_0" intLanes=":2_0_0" shape="972.94,671.84 969.85,671.01 972.75,672.36 972.85,672.13 972.91,671.97">
        <request index="0" response="0" foes="0" cont="0"/>
    </junction>
    <junction id="20" type="priority" x="30.15" y="328.99" incLanes="19_20_0" intLanes=":20_0_0" shape="30.15,328.99 27.25,327.64 27.15,327.87 27.09,328.03 27.07,328.13">
        <request index="0" response="0" foes="0" cont="0"/>
    </junction>
    <junction id="21" type="priority" x="66.99" y="250.00" incLanes="20_21_0" intLanes=":21_0_0" shape="66.99,250.00 64.37,248.16 64.23,248.37 64.15,248.53 64.11,248.61">
        <request index="0" response="0" foes="0" cont="0"/>
    </junction>
    <junction id="22" type="priority" x="116.98" y="178.61" incLanes="21_22_0" intLanes=":22_0_0" shape="116.98,178.61 114.72,176.35 114.54,176.53 114.44,176.67 114.38,176.74">
        <request index="0" response="0" foes="0" cont="0"/>
    </junction>
    <junction id="23" type="priority" x="178.61" y="116.98" incLanes="22_23_0" intLanes=":23_0_0" shape="178.61,116.98 176.77,114.36 176.57,114.50 176.44,114.62 176.37,114.69">
        <request index="0" response="0" foes="0" cont="0"/>
    </junction>
    <junction id="24" type="priority" x="250.00" y="66.99" incLanes="23_24_0" intLanes=":24_0_0" shape="250.00,66.99 248.65,64.09 248.42,64.20 248.27,64.29 248.20,64.35">
        <request index="0" response="0" foes="0" cont="0"/>
    </junction>
    <junction id="25" type="priority" x="328.99" y="30.15" incLanes="24_25_0" intLanes=":25_0_0" shape="328.99,30.15 328.16,27.06 327.92,27.13 327.76,27.19 327.67,27.23">
        <request index="0" response="0" foes="0" cont="0"/>
    </junction>
    <junction id="26" type="priority" x="413.18" y="7.60" incLanes="25_26_0" intLanes=":26_0_0" shape="413.18,7.60 412.90,4.41 412.65,4.44 412.48,4.47 412.39,4.50">
        <request index="0" response="0" foes="0" cont="0"/>
    </junction>
    <junction id="27" type="priority" x="500.00" y="0.00" incLanes="26_27_0" intLanes=":27_0_0" shape="500.00,0.00 500.28,-3.19 500.03,-3.21 499.85,-3.20 499.76,-3.19">
        <request index="0" response="0" foes="0" cont="0"/>
    </junction>
    <junction id="28" type="priority" x="586.82" y="7.60" incLanes="27_28_0" intLanes=":28_0_0" shape="586.82,7.60 587.65,4.51 587.41,4.45 587.23,4.42 587.14,4.42">
        <request index="0" response="0" foes="0" cont="0"/>
    </junction>
    <junction id="29" type="priority" x="671.01" y="30.15" incLanes="28_29_0" intLanes=":29_0_0" shape="671.01,30.15 672.36,27.25 672.13,27.15 671.97,27.09 671.87,27.07">
        <request index="0" response="0" foes="0" cont="0"/>
    </junction>
    <junction id="3" type="priority" x="933.01" y="750.00" incLanes="2_3_0" intLanes=":3_0_0" shape="935.91,751.35 933.01,750.00 935.63,751.84 935.77,751.63 935.85,751.47">
        <request index="0" response="0" foes="0" cont="0"/>
    </junction>
    <junction id="30" type="priority" x="750.00" y="66.99" incLanes="29_30_0" intLanes=":30_0_0" shape="750.00,66.99 751.84,64.37 751.63,64.23 751.47,64.15 751.39,64.11">
        <request index="0" response="0" foes="0" cont="0"/>
    </junction>
    <junction id="31" type="priority" x="821.39" y="116.98" incLanes="30_31_0" intLanes=":31_0_0" shape="821.39,116.98 823.65,114.72 823.47,114.54 823.33,114.44 823.26,114.38">
        <request index="0" response="0" foes="0" cont="0"/>
    </junction>
    <junction id="32" type="priority" x="883.02" y="178.61" incLanes="31_32_0" intLanes=":32_0_0" shape="883.02,178.61 885.64,176.77 885.50,176.57 885.38,176.44 885.31,176.37">
        <request index="0" response="0" foes="0" cont="0"/>
    </junction>
    <junction id="33" type="priority" x="933.01" y="250.00" incLanes="32_33_0" intLanes=":33_0_0" shape="933.01,250.00 935.91,248.65 935.80,248.42 935.71,248.27 935.65,248.20">
        <request index="0" response="0" foes="0" cont="0"/>
    </junction>
    <junction id="34" type="priority" x="969.85" y="328.99" incLanes="33_34_0" intLanes=":34_0_0" shape="969.85,328.99 972.94,328.16 972.87,327.92 972.81,327.76 972.77,327.67">
        <request index="0" response="0" foes="0" cont="0"/>
    </junction>
    <junction id="35" type="priority" x="992.40" y="413.18" incLanes="34_35_0" intLanes=":35_0_0" shape="992.40,413.18 995.59,412.90 995.56,412.65 995.53,412.48 995.50,412.39">
        <request index="0" response="0" foes="0" cont="0"/>
    </junction>
    <junction id="4" type="priority" x="883.02" y="821.39" incLanes="3_4_0" intLanes=":4_0_0" shape="885.64,823.23 883.02,821.39 885.28,823.65 885.46,823.47 885.56,823.33">
        <request index="0" response="0" foes="0" cont="0"/>
    </junction>
    <junction id="5" type="priority" x="821.39" y="883.02" incLanes="4_5_0" intLanes=":5_0_0" shape="823.65,885.28 821.39,883.02 823.23,885.64 823.43,885.50 823.56,885.38">
        <request index="0" response="0" foes="0" cont="0"/>
    </junction>
    <junction id="6" type="priority" x="750.00" y="933.01" incLanes="5_6_0" intLanes=":6_0_0" shape="751.84,935.63 750.00,933.01 751.35,935.91 751.58,935.80 751.73,935.71">
        <request index="0" response="0" foes="0" cont="0"/>
    </junction>
    <junction id="7" type="priority" x="671.01" y="969.85" incLanes="6_7_0" intLanes=":7_0_0" shape="672.36,972.75 671.01,969.85 671.84,972.94 672.08,972.87 672.24,972.81">
        <request index="0" response="0" foes="0" cont="0"/>
    </junction>
    <junction id="8" type="priority" x="586.82" y="992.40" incLanes="7_8_0" intLanes=":8_0_0" shape="587.65,995.49 586.82,992.40 587.10,995.59 587.35,995.56 587.52,995.53">
        <request index="0" response="0" foes="0" cont="0"/>
    </junction>
    <junction id="9" type="priority" x="500.00" y="1000.00" incLanes="8_9_0" intLanes=":9_0_0" shape="500.28,1003.19 500.00,1000.00 499.72,1003.19 499.97,1003.21 500.15,1003.20">
        <request index="0" response="0" foes="0" cont="0"/>
    </junction>

    <connection from="0_1" to="1_2" fromLane="0" toLane="0" via=":1_0_0" dir="s" state="M"/>
    <connection from="10_11" to="11_12" fromLane="0" toLane="0" via=":11_0_0" dir="s" state="M"/>
    <connection from="11_12" to="12_13" fromLane="0" toLane="0" via=":12_0_0" dir="s" state="M"/>
    <connection from="12_13" to="13_14" fromLane="0" toLane="0" via=":13_0_0" dir="s" state="M"/>
    <connection from="13_14" to="14_15" fromLane="0" toLane="0" via=":14_0_0" dir="s" state="M"/>
    <connection from="14_15" to="15_16" fromLane="0" toLane="0" via=":15_0_0" dir="s" state="M"/>
    <connection from="15_16" to="16_17" fromLane="0" toLane="0" via=":16_0_0" dir="s" state="M"/>
    <connection from="16_17" to="17_18" fromLane="0" toLane="0" via=":17_0_0" dir="s" state="M"/>
    <connection from="17_18" to="18_19" fromLane="0" toLane="0" via=":18_0_0" dir="s" state="M"/>
    <connection from="18_19" to="19_20" fromLane="0" toLane="0" via=":19_0_0" dir="s" state="M"/>
    <connection from="19_20" to="20_21" fromLane="0" toLane="0" via=":20_0_0" dir="s" state="M"/>
    <connection from="1_2" to="2_3" fromLane="0" toLane="0" via=":2_0_0" dir="s" state="M"/>
    <connection from="20_21" to="21_22" fromLane="0" toLane="0" via=":21_0_0" dir="s" state="M"/>
    <connection from="21_22" to="22_23" fromLane="0" toLane="0" via=":22_0_0" dir="s" state="M"/>
    <connection from="22_23" to="23_24" fromLane="0" toLane="0" via=":23_0_0" dir="s" state="M"/>
    <connection from="23_24" to="24_25" fromLane="0" toLane="0" via=":24_0_0" dir="s" state="M"/>
    <connection from="24_25" to="25_26" fromLane="0" toLane="0" via=":25_0_0" dir="s" state="M"/>
    <connection from="25_26" to="26_27" fromLane="0" toLane="0" via=":26_0_0" dir="s" state="M"/>
    <connection from="26_27" to="27_28" fromLane="0" toLane="0" via=":27_0_0" dir="s" state="M"/>
    <connection from="27_28" to="28_29" fromLane="0" toLane="0" via=":28_0_0" dir="s" state="M"/>
    <connection from="28_29" to="29_30" fromLane="0" toLane="0" via=":29_0_0" dir="s" state="M"/>
    <connection from="29_30" to="30_31" fromLane="0" toLane="0" via=":30_0_0" dir="s" state="M"/>
    <connection from="2_3" to="3_4" fromLane="0" toLane="0" via=":3_0_0" dir="s" state="M"/>
    <connection from="30_31" to="31_32" fromLane="0" toLane="0" via=":31_0_0" dir="s" state="M"/>
    <connection from="31_32" to="32_33" fromLane="0" toLane="0" via=":32_0_0" dir="s" state="M"/>
    <connection from="32_33" to="33_34" fromLane="0" toLane="0" via=":33_0_0" dir="s" state="M"/>
    <connection from="33_34" to="34_35" fromLane="0" toLane="0" via=":34_0_0" dir="s" state="M"/>
    <connection from="34_35" to="35_0" fromLane="0" toLane="0" via=":35_0_0" dir="s" state="M"/>
    <connection from="35_0" to="0_1" fromLane="0" toLane="0" via=":0_0_0" dir="s" state="M"/>
    <connection from="3_4" to="4_5" fromLane="0" toLane="0" via=":4_0_0" dir="s" state="M"/>
    <connection from="4_5" to="5_6" fromLane="0" toLane="0" via=":5_0_0" dir="s" state="M"/>
    <connection from="5_6" to="6_7" fromLane="0" toLane="0" via=":6_0_0" dir="s" state="M"/>
    <connection from="6_7" to="7_8" fromLane="0" toLane="0" via=":7_0_0" dir="s" state="M"/>
    <connection from="7_8" to="8_9" fromLane="0" toLane="0" via=":8_0_0" dir="s" state="M"/>
    <connection from="8_9" to="9_10" fromLane="0" toLane="0" via=":9_0_0" dir="s" state="M"/>
    <connection from="9_10" to="10_11" fromLane="0" toLane="0" via=":10_0_0" dir="s" state="M"/>

    <connection from=":0_0" to="0_1" fromLane="0" toLane="0" dir="s" state="M"/>
    <connection from=":1_0" to="1_2" fromLane="0" toLane="0" dir="s" state="M"/>
    <connection from=":10_0" to="10_11" fromLane="0" toLane="0" dir="s" state="M"/>
    <connection from=":11_0" to="11_12" fromLane="0" toLane="0" dir="s" state="M"/>
    <connection from=":12_0" to="12_13" fromLane="0" toLane="0" dir="s" state="M"/>
    <connection from=":13_0" to="13_14" fromLane="0" toLane="0" dir="s" state="M"/>
    <connection from=":14_0" to="14_15" fromLane="0" toLane="0" dir="s" state="M"/>
    <connection from=":15_0" to="15_16" fromLane="0" toLane="0" dir="s" state="M"/>
    <connection from=":16_0" to="16_17" fromLane="0" toLane="0" dir="s" state="M"/>
    <connection from=":17_0" to="17_18" fromLane="0" toLane="0" dir="s" state="M"/>
    <connection from=":18_0" to="18_19" fromLane="0" toLane="0" dir="s" state="M"/>
    <connection from=":19_0" to="19_20" fromLane="0" toLane="0" dir="s" state="M"/>
    <connection from=":2_0" to="2_3" fromLane="0" toLane="0" dir="s" state="M"/>
    <connection from=":20_0" to="20_21" fromLane="0" toLane="0" dir="s" state="M"/>
    <connection from=":21_0" to="21_22" fromLane="0" toLane="0" dir="s" state="M"/>
    <connection from=":22_0" to="22_23" fromLane="0" toLane="0" dir="s" state="M"/>
    <connection from=":23_0" to="23_24" fromLane="0" toLane="0" dir="s" state="M"/>
    <connection from=":24_0" to="24_25" fromLane="0" toLane="0" dir="s" state="M"/>
    <connection from=":25_0" to="25_26" fromLane="0" toLane="0" dir="s" state="M"/>
    <connection from=":26_0" to="26_27" fromLane="0" toLane="0" dir="s" state="M"/>
    <connection from=":27_0" to="27_28" fromLane="0" toLane="0" dir="s" state="M"/>
    <connection from=":28_0" to="28_29" fromLane="0" toLane="0" dir="s" state="M"/>
    <connection from=":29_0" to="29_30" fromLane="0" toLane="0" dir="s" state="M"/>
    <connection from=":3_0" to="3_4" fromLane="0" toLane="0" dir="s" state="M"/>
    <connection from=":30_0" to="30_31" fromLane="0" toLane="0" dir="s" state="M"/>
    <connection from=":31_0" to="31_32" fromLane="0" toLane="0" dir="s" state="M"/>
    <connection from=":32_0" to="32_33" fromLane="0" toLane="0" dir="s" state="M"/>
    <connection from=":33_0" to="33_34" fromLane="0" toLane="0" dir="s" state="M"/>
    <connection from=":34_0" to="34_35" fromLane="0" toLane="0" dir="s" state="M"/>
    <connection from=":35_0" to="35_0" fromLane="0" toLane="0" dir="s" state="M"/>
    <connection from=":4_0" to="4_5" fromLane="0" toLane="0" dir="s" state="M"/>
    <connection from=":5_0" to="5_6" fromLane="0" toLane="0" dir="s" state="M"/>
    <connection from=":6_0" to="6_7" fromLane="0" toLane="0" dir="s" state="M"/>
    <connection from=":7_0" to="7_8" fromLane="0" toLane="0" dir="s" state="M"/>
    <connection from=":8_0" to="8_9" fromLane="0" toLane="0" dir="s" state="M"/>
    <connection from=":9_0" to="9_10" fromLane="0" toLane="0" dir="s" state="M"/>

</net>
