<?xml version="1.0" encoding="UTF-8"?>
<edges xmlns:xsi="http://www.w3.org/2001/XMLSchema-instance" xsi:noNamespaceSchemaLocation="http://sumo.dlr.de/xsd/edges_file.xsd">
    <edge id="0i" from="0" to="1" priority="75" numLanes="2" speed="13.89"/>
    <edge id="0o" from="1" to="0" priority="75" numLanes="1" speed="13.89"/>
    <edge id="1i" from="1" to="2" priority="75" numLanes="2" speed="13.89"/>
    <edge id="1o" from="2" to="1" priority="75" numLanes="1" speed="13.89"/>
    <edge id="2i" from="2" to="3" priority="75" numLanes="2" speed="13.89"/>
    <edge id="2o" from="3" to="2" priority="75" numLanes="1" speed="13.89"/>
    <edge id="3i" from="3" to="0" priority="75" numLanes="2" speed="13.89"/>
    <edge id="3o" from="0" to="3" priority="75" numLanes="1" speed="13.89"/>
</edges> 